Version 4.1
SHEET 1 1748 680
WIRE 624 16 528 16
WIRE 704 16 624 16
WIRE 848 16 704 16
WIRE 1008 16 944 16
WIRE 1072 16 1008 16
WIRE 1104 16 1072 16
WIRE 1232 16 1184 16
WIRE 1360 16 1232 16
WIRE 1472 16 1360 16
WIRE 1600 16 1472 16
WIRE 176 32 16 32
WIRE 464 32 304 32
WIRE 1600 64 1600 16
WIRE 528 80 528 16
WIRE 624 80 624 16
WIRE 1072 80 1072 16
WIRE 1232 80 1232 16
WIRE 1360 80 1360 16
WIRE 1472 80 1472 16
WIRE 16 112 16 32
WIRE 176 112 176 32
WIRE 304 112 304 32
WIRE 704 144 704 16
WIRE 928 144 928 64
WIRE 464 160 464 32
WIRE 528 160 528 144
WIRE 528 160 464 160
WIRE 624 176 624 144
WIRE 624 176 464 176
WIRE 1600 176 1600 144
WIRE 1712 176 1600 176
WIRE 528 192 528 160
WIRE 624 192 624 176
WIRE 1472 192 1472 160
WIRE 1472 192 1424 192
WIRE 1472 240 1472 192
WIRE 1712 240 1712 176
WIRE 1712 240 1680 240
WIRE 1584 256 1568 256
WIRE 16 272 16 192
WIRE 96 272 16 272
WIRE 176 272 176 192
WIRE 176 272 96 272
WIRE 304 272 304 192
WIRE 464 272 464 176
WIRE 464 272 304 272
WIRE 928 272 928 224
WIRE 1008 272 1008 16
WIRE 1008 272 928 272
WIRE 1744 272 1680 272
WIRE 96 288 96 272
WIRE 528 304 528 256
WIRE 576 304 528 304
WIRE 624 304 624 256
WIRE 624 304 576 304
WIRE 704 304 704 208
WIRE 704 304 624 304
WIRE 1072 304 1072 144
WIRE 1072 304 704 304
WIRE 1232 304 1232 144
WIRE 1232 304 1072 304
WIRE 1360 304 1360 160
WIRE 1360 304 1232 304
WIRE 576 336 576 304
WIRE 1360 352 1360 304
WIRE 1472 352 1472 320
WIRE 1472 352 1360 352
WIRE 1568 352 1568 256
WIRE 1568 352 1472 352
WIRE 1424 400 1424 192
WIRE 1744 400 1744 272
WIRE 1744 400 1424 400
FLAG 96 288 0
FLAG 576 336 0
SYMBOL voltage 16 96 R0
WINDOW 123 0 0 Left 0
WINDOW 39 24 124 Left 2
SYMATTR SpiceLine Rser=0.1
SYMATTR InstName V1
SYMATTR Value SINE(0 120 60)
SYMBOL ind 160 96 R0
SYMATTR InstName L1
SYMATTR Value 1
SYMATTR Type ind
SYMBOL ind 320 208 R180
WINDOW 0 36 80 Left 2
WINDOW 3 36 40 Left 2
SYMATTR InstName L2
SYMATTR Value 10m
SYMATTR Type ind
SYMBOL diode 544 144 R180
WINDOW 0 24 64 Left 2
WINDOW 3 24 0 Left 2
SYMATTR InstName D1
SYMATTR Value 1N5408
SYMBOL diode 640 144 R180
WINDOW 0 24 64 Left 2
WINDOW 3 24 0 Left 2
SYMATTR InstName D2
SYMATTR Value 1N5408
SYMBOL diode 544 256 R180
WINDOW 0 24 64 Left 2
WINDOW 3 24 0 Left 2
SYMATTR InstName D3
SYMATTR Value 1N5408
SYMBOL diode 640 256 R180
WINDOW 0 24 64 Left 2
WINDOW 3 24 0 Left 2
SYMATTR InstName D4
SYMATTR Value 1N5408
SYMBOL cap 688 144 R0
SYMATTR InstName C1
SYMATTR Value 6800µF
SYMBOL lib\\sym\\nmos 848 64 R270
SYMATTR InstName M1
SYMATTR Value IRLZ44N
SYMBOL lib\\sym\\zener 1088 144 R180
WINDOW 0 24 64 Left 2
WINDOW 3 24 0 Left 2
SYMATTR InstName D5
SYMATTR Value 1N5824
SYMBOL ind 1088 32 R270
WINDOW 0 32 56 VTop 2
WINDOW 3 5 56 VBottom 2
SYMATTR InstName L3
SYMATTR Value 100µ
SYMBOL cap 1216 80 R0
SYMATTR InstName C2
SYMATTR Value 200µ
SYMBOL res 1344 64 R0
SYMATTR InstName R1
SYMATTR Value 5.56
SYMBOL voltage 928 128 R0
WINDOW 123 0 0 Left 0
WINDOW 39 0 0 Left 0
SYMATTR InstName V2
SYMATTR Value PULSE(0 5 0 60n 40n 4.25u 5u)
SYMBOL res 1456 224 R0
SYMATTR InstName R2
SYMATTR Value 10k
SYMBOL res 1456 64 R0
SYMATTR InstName R3
SYMATTR Value 38k
SYMBOL res 1584 48 R0
SYMATTR InstName R4
SYMATTR Value 1k
SYMBOL lib\\sym\\TL431\\TL431 1632 256 R0
SYMATTR InstName U1
TEXT 184 16 Left 2 !K1 L1 L2 1
TEXT -16 312 Left 2 !.tran 100m
TEXT 40 -128 Left 2 !.model 1N5408 D (IS=1.41E-6 RS=0.0339 N=1.9011 BV=1000 IBV=5E-6 CJO=4.5E-11 M=0.4061 VJ=0.5 FC=0.5 TT=4.761E-6 EG=1.11 XTI=3)
TEXT 992 -96 Left 2 !.model IRLZ44N NMOS(Vto=2 Kp=20 Rd=22m)
TEXT 992 -64 Left 2 !.model 1N5824 D(Is=500u Rs=8m N=1.05 Bv=40)
