Version 4.1
SHEET 1 880 680
WIRE 352 80 64 80
WIRE 608 80 416 80
WIRE 64 144 64 80
WIRE 352 144 352 80
WIRE 416 144 416 80
WIRE 608 144 608 80
WIRE 64 272 64 224
WIRE 352 272 352 224
WIRE 416 272 416 224
WIRE 608 272 608 224
FLAG 64 272 0
FLAG 352 272 0
FLAG 416 272 0
FLAG 608 272 0
FLAG 64 80 In
FLAG 608 80 Out
SYMBOL voltage 64 128 R0
SYMATTR InstName V1
SYMBOL res 592 128 R0
SYMATTR InstName R1
SYMBOL ind 336 128 R0
WINDOW 0 -28 32 Left 2
WINDOW 3 -24 81 Left 2
SYMATTR InstName L1
SYMATTR Value 1µ
SYMATTR Type ind
SYMBOL ind 432 128 M0
WINDOW 0 -37 30 Left 2
WINDOW 3 -25 81 Left 2
SYMATTR InstName L2
SYMATTR Value 9µ
SYMATTR Type ind
