Version 4.1
SHEET 1 904 680
WIRE 592 -16 432 -16
WIRE 704 -16 592 -16
WIRE 848 -16 704 -16
WIRE 432 48 432 -16
WIRE 592 48 592 -16
WIRE 160 96 -16 96
WIRE 368 96 272 96
WIRE -16 144 -16 96
WIRE 160 144 160 96
WIRE 272 144 272 96
WIRE 368 144 368 96
WIRE 432 144 432 112
WIRE 432 144 368 144
WIRE 704 144 704 -16
WIRE 848 144 848 -16
WIRE 592 176 592 112
WIRE 592 176 368 176
WIRE 592 208 592 176
WIRE 432 224 432 144
WIRE -16 272 -16 224
WIRE 80 272 -16 272
WIRE 160 272 160 224
WIRE 160 272 80 272
WIRE 272 288 272 224
WIRE 368 288 368 176
WIRE 368 288 272 288
WIRE 80 304 80 272
WIRE 432 352 432 288
WIRE 528 352 432 352
WIRE 592 352 592 272
WIRE 592 352 528 352
WIRE 704 352 704 208
WIRE 704 352 592 352
WIRE 848 352 848 224
WIRE 848 352 704 352
WIRE 528 368 528 352
FLAG 528 368 0
FLAG 80 304 0
SYMBOL voltage -16 128 R0
WINDOW 123 0 0 Left 0
WINDOW 39 24 124 Left 2
SYMATTR InstName V1
SYMATTR Value SINE(0 120 60)
SYMATTR SpiceLine Rser=0.1
SYMBOL ind 144 128 R0
SYMATTR InstName L1
SYMATTR Value 1
SYMATTR Type ind
SYMBOL ind 288 240 R180
WINDOW 0 36 80 Left 2
WINDOW 3 36 40 Left 2
SYMATTR InstName L2
SYMATTR Value 10m
SYMATTR Type ind
SYMBOL lib\\sym\\Misc\\SCR 448 112 R180
SYMATTR InstName U1
SYMBOL lib\\sym\\Misc\\SCR 608 112 R180
SYMATTR InstName U2
SYMBOL lib\\sym\\Misc\\SCR 448 288 R180
SYMATTR InstName U3
SYMBOL lib\\sym\\Misc\\SCR 608 272 R180
SYMATTR InstName U4
SYMBOL cap 688 144 R0
SYMATTR InstName C1
SYMBOL res 832 128 R0
SYMATTR InstName R1
TEXT 160 72 Left 2 !K1 L1 L2 1
