Version 4.1
SHEET 1 1700 680
WIRE 480 -224 384 -224
WIRE 496 -224 480 -224
WIRE 384 -176 384 -224
WIRE 640 -112 608 -112
WIRE 528 -80 528 -112
WIRE 592 -16 432 -16
WIRE 720 -16 592 -16
WIRE 848 -16 720 -16
WIRE 432 48 432 -16
WIRE 480 48 480 -224
WIRE 592 48 592 -16
WIRE 640 48 640 -112
WIRE 160 96 -16 96
WIRE 368 96 272 96
WIRE -16 144 -16 96
WIRE 160 144 160 96
WIRE 272 144 272 96
WIRE 368 144 368 96
WIRE 432 144 432 112
WIRE 432 144 368 144
WIRE 720 144 720 -16
WIRE 848 144 848 -16
WIRE 592 176 592 112
WIRE 592 176 368 176
WIRE 592 208 592 176
WIRE 432 224 432 144
WIRE -16 272 -16 224
WIRE 80 272 -16 272
WIRE 160 272 160 224
WIRE 160 272 80 272
WIRE 272 288 272 224
WIRE 368 288 368 176
WIRE 368 288 272 288
WIRE 80 304 80 272
WIRE 432 352 432 288
WIRE 592 352 592 272
WIRE 592 352 432 352
WIRE 720 352 720 208
WIRE 720 352 592 352
WIRE 848 352 848 224
WIRE 848 352 720 352
WIRE 720 368 720 352
WIRE 368 464 320 464
WIRE 480 464 480 224
WIRE 480 464 448 464
WIRE 320 480 320 464
WIRE 640 480 640 208
FLAG 80 304 0
FLAG 720 368 0
FLAG 384 -96 0
FLAG 528 -80 0
FLAG 320 480 0
FLAG 640 560 0
SYMBOL voltage -16 128 R0
WINDOW 123 0 0 Left 0
WINDOW 39 24 124 Left 2
SYMATTR InstName V1
SYMATTR Value SINE(0 120 60)
SYMATTR SpiceLine Rser=0.1
SYMBOL ind 144 128 R0
SYMATTR InstName L1
SYMATTR Value 1
SYMATTR Type ind
SYMBOL ind 288 240 R180
WINDOW 0 36 80 Left 2
WINDOW 3 36 40 Left 2
SYMATTR InstName L2
SYMATTR Value 10m
SYMATTR Type ind
SYMBOL lib\\sym\\Misc\\SCR 448 112 R180
SYMATTR InstName U1
SYMBOL lib\\sym\\Misc\\SCR 608 112 R180
SYMATTR InstName U2
SYMBOL lib\\sym\\Misc\\SCR 448 288 R180
SYMATTR InstName U3
SYMBOL lib\\sym\\Misc\\SCR 608 272 R180
SYMATTR InstName U4
SYMBOL res 832 128 R0
SYMATTR InstName R1
SYMATTR Value 5.56
SYMATTR SpiceLine pwr=21
SYMBOL cap 704 144 R0
SYMATTR InstName C1
SYMATTR Value 470µ
SYMBOL voltage 624 -112 R90
WINDOW 0 -32 56 VBottom 2
WINDOW 3 32 56 VTop 2
SYMATTR InstName V3
SYMATTR Value PULSE(0 10 3.89m 1u 1u 100u 16.67m)
SYMBOL voltage 464 464 R90
WINDOW 0 -32 56 VBottom 2
WINDOW 3 32 56 VTop 2
SYMATTR InstName V4
SYMATTR Value PULSE(0 10 12.22m 1u 1u 100u 16.67m)
SYMBOL voltage 640 464 R0
SYMATTR InstName V5
SYMATTR Value PULSE(0 10 12.22m 1u 1u 100u 16.67m)
SYMBOL voltage 384 -192 R0
SYMATTR InstName V2
SYMATTR Value PULSE(0 10 3.89m 1u 1u 100u 16.67m)
TEXT 160 72 Left 2 !K1 L1 L2 1
TEXT 976 24 Left 2 !.subckt SCR 1 2 3\n* Anode=1 Gate=2 Cathode=3\nQ1 5 4 3 QMOD1\nQ2 4 5 1 QMOD2\nRG 2 4 100\nRT 1 5 1k\n.model QMOD1 NPN(Bf=100 Br=1 Cje=1pF Cjc=2pF Vaf=200)\n.model QMOD2 PNP(Bf=20 Br=1 Cje=3pF Cjc=5pF Vaf=50)\n.ends SCR
TEXT -48 392 Left 2 !.tran 0 100m 0 1u
