Version 4.1
SHEET 1 880 680
WIRE 192 64 80 64
WIRE 352 64 272 64
WIRE 80 112 80 64
WIRE 352 112 352 64
WIRE 80 256 80 192
WIRE 352 256 352 176
FLAG 80 256 0
FLAG 352 256 0
FLAG 80 64 In
FLAG 352 64 Out
SYMBOL voltage 80 96 R0
WINDOW 3 -195 200 Left 2
WINDOW 123 0 0 Left 0
WINDOW 39 0 0 Left 0
SYMATTR InstName V1
SYMATTR Value PULSE(0 5 10m 1u 1u 10m 20m)
SYMBOL res 288 48 R90
WINDOW 0 0 56 VBottom 2
WINDOW 3 32 56 VTop 2
SYMATTR InstName R1
SYMATTR Value 10k
SYMBOL cap 336 112 R0
SYMATTR InstName C1
SYMATTR Value 0.1µ
TEXT -63 102 Left 2 !.tran 60m
