Version 4.1
SHEET 1 1884 680
WIRE 128 32 -48 32
WIRE 400 32 240 32
WIRE 544 32 400 32
WIRE 704 32 608 32
WIRE 848 32 704 32
WIRE 1040 32 848 32
WIRE 1056 32 1040 32
WIRE -48 112 -48 32
WIRE 128 112 128 32
WIRE 240 112 240 32
WIRE 608 112 608 80
WIRE 704 112 704 32
WIRE 848 112 848 32
WIRE 1040 128 1040 32
WIRE 400 176 400 32
WIRE 416 176 400 176
WIRE 608 176 496 176
WIRE -48 272 -48 192
WIRE 80 272 -48 272
WIRE 128 272 128 192
WIRE 128 272 80 272
WIRE 240 288 240 192
WIRE 304 288 240 288
WIRE 704 288 704 176
WIRE 704 288 304 288
WIRE 848 288 848 192
WIRE 848 288 704 288
WIRE 1040 288 1040 208
WIRE 1040 288 848 288
WIRE 80 304 80 272
WIRE 304 320 304 288
FLAG 80 304 0
FLAG 304 320 0
SYMBOL voltage -48 96 R0
WINDOW 123 0 0 Left 0
WINDOW 39 24 124 Left 2
SYMATTR SpiceLine Rser=0.1
SYMATTR InstName V1
SYMATTR Value SINE(0 120 60)
SYMBOL ind 112 96 R0
SYMATTR InstName L1
SYMATTR Value 1
SYMATTR Type ind
SYMBOL ind 256 208 R180
WINDOW 0 36 80 Left 2
WINDOW 3 36 40 Left 2
SYMATTR InstName L2
SYMATTR Value 10m
SYMATTR Type ind
SYMBOL lib\\sym\\Misc\\SCR 544 48 R270
SYMATTR InstName U1
SYMBOL res 1024 112 R0
SYMATTR InstName R2
SYMATTR Value 5.56
SYMATTR SpiceLine pwr=21W
SYMBOL cap 688 112 R0
SYMATTR InstName C2
SYMATTR Value 6800µF
SYMBOL res 832 96 R0
SYMATTR InstName R1
SYMATTR Value 220
SYMBOL diode 624 176 R180
WINDOW 0 24 64 Left 2
WINDOW 3 24 0 Left 2
SYMATTR InstName D4
SYMATTR Value 1N5408
SYMBOL res 512 160 R90
WINDOW 0 0 56 VBottom 2
WINDOW 3 32 56 VTop 2
SYMATTR InstName R3
SYMATTR Value 10k
TEXT 136 16 Left 2 !K1 L1 L2 1
TEXT -80 296 Left 2 !.tran 0 200m
TEXT 1160 48 Left 2 !.subckt SCR 1 2 3\n* Anode=1 Gate=2 Cathode=3\nQ1 5 4 3 QMOD1\nQ2 4 5 1 QMOD2\nRG 2 4 100\nRT 1 5 1k\n.model QMOD1 NPN(Bf=100 Br=1 Cje=1pF Cjc=2pF Vaf=200)\n.model QMOD2 PNP(Bf=20 Br=1 Cje=3pF Cjc=5pF Vaf=50)\n.ends SCR
TEXT -32 -48 Left 2 !.model 1N5408 D (IS=1.41E-6 RS=0.0339 N=1.9011 BV=1000 IBV=5E-6 CJO=4.5E-11 M=0.4061 VJ=0.5 FC=0.5 TT=4.761E-6 EG=1.11 XTI=3)
